mysite/data/Projects/Test1/Feeder1/glmIn/main.glm
clock {
	timezone PST+8PDT;
	starttime '2000-01-01 00:00:00';
	stoptime '2000-01-01 00:00:00';
};

#set minimum_timestep=60;
#set profiler=1;
#set relax_naming_rules=1;
module generators;
module tape;
module residential {
	implicit_enduses NONE;
};

module powerflow {
	solver_method NR;
	NR_iteration_limit 50;
};

object overhead_line_conductor {
	resistance 0.214101;
	name ACSR_477;
	geometric_mean_radius 0.026300;
};

object overhead_line_conductor {
	resistance 0.072701;
	name CLP_1500_33KV;
	geometric_mean_radius 0.044183;
};

object overhead_line_conductor {
	resistance 9.280701;
	name CU_N_#12;
	geometric_mean_radius 0.002623;
};

object overhead_line_conductor {
	resistance 0.138967;
	name CLP_750_33KV;
	geometric_mean_radius 0.031137;
};

object overhead_line_conductor {
	resistance 0.000000;
	name ACSR_LINNET_336_4_KCMIL;
	geometric_mean_radius 0.024400;
};

object overhead_line_conductor {
	resistance 14.595001;
	name CU_N_#14;
	geometric_mean_radius 0.002083;
};

object overhead_line_conductor {
	resistance 2.459000;
	name ACSR_#4;
	geometric_mean_radius 0.003300;
};

object overhead_line_conductor {
	resistance 0.312013;
	name CLP_350_5_12_16KV;
	geometric_mean_radius 0.021152;
};

object overhead_line_conductor {
	resistance 0.000000;
	name ACSR_#6;
	geometric_mean_radius 0.002400;
};

object overhead_line_conductor {
	resistance 1.583001;
	name ACSR_#2;
	geometric_mean_radius 0.004600;
};

object overhead_line_conductor {
	resistance 0.303039;
	name 336_TEST;
	geometric_mean_radius 0.024000;
};

object overhead_line_conductor {
	resistance 1.034000;
	name ACSR_1_0;
	geometric_mean_radius 0.007100;
};

object overhead_line_conductor {
	resistance 0.485579;
	name CLP_4_0_33KV;
	geometric_mean_radius 0.016171;
};

object overhead_line_conductor {
	resistance 0.975000;
	name CU_#2;
	geometric_mean_radius 0.008830;
};

object overhead_line_conductor {
	resistance 0.158100;
	name ACSR_653;
	geometric_mean_radius 0.030842;
};

object overhead_line_conductor {
	resistance 1.543374;
	name CLP_#2_5_12_16KV;
	geometric_mean_radius 0.008561;
};

object overhead_line_conductor {
	resistance 0.000000;
	name ACSR_PENGUIN_4_0_AWG;
	geometric_mean_radius 0.008140;
};

object overhead_line_conductor {
	resistance 0.770449;
	name CU_#1;
	geometric_mean_radius 0.009919;
};

object overhead_line_conductor {
	resistance 0.105560;
	name CLP_1000_12_16KV;
	geometric_mean_radius 0.035930;
};

object overhead_line_conductor {
	resistance 1.549999;
	name CU_#4;
	geometric_mean_radius 0.007000;
};

object overhead_line_conductor {
	resistance 3.840901;
	name CU_#8;
	geometric_mean_radius 0.004170;
};

object overhead_line_conductor {
	resistance 2.400000;
	name CW_6A_COPPERWELD;
	geometric_mean_radius 0.004790;
};

object overhead_line_conductor {
	resistance 2.417000;
	name CU_#6;
	geometric_mean_radius 0.005260;
};

object overhead_line_conductor {
	resistance 0.486600;
	name CU_2_0;
	geometric_mean_radius 0.012510;
};

object overhead_line_conductor {
	resistance 0.573000;
	name ACSR_4_0;
	geometric_mean_radius 0.010500;
};

object overhead_line_conductor {
	resistance 0.843000;
	name ACSR_2_0;
	geometric_mean_radius 0.007700;
};

object overhead_line_conductor {
	resistance 0.386980;
	name CU_3_0;
	geometric_mean_radius 0.014040;
};

object overhead_line_conductor {
	resistance 0.974947;
	name CLP_1_0_5_12_16KV;
	geometric_mean_radius 0.011433;
};

object overhead_line_conductor {
	resistance 0.306701;
	name CU_4_0;
	geometric_mean_radius 0.015770;
};

object overhead_line_conductor {
	resistance 0.613701;
	name CU_1_0;
	geometric_mean_radius 0.011140;
};

object overhead_line_conductor {
	resistance 0.302700;
	name ACSR_336;
	geometric_mean_radius 0.022100;
};

object overhead_line_conductor {
	resistance 0.000000;
	name NONE;
	geometric_mean_radius 0.028999;
};

object overhead_line_conductor {
	resistance 0.138967;
	name CLP_750_5_12_16KV;
	geometric_mean_radius 0.031137;
};

object overhead_line_conductor {
	resistance 0.196018;
	name DEFAULT;
	geometric_mean_radius 0.028999;
};

object overhead_line_conductor {
	resistance 0.108800;
	name ACSR_954;
	geometric_mean_radius 0.038083;
};

object overhead_line_conductor {
	resistance 2.010000;
	name AW_3C_7#6_ALUMOWELD;
	geometric_mean_radius 0.000018;
};

object overhead_line_conductor {
	resistance 3.820000;
	name CW_8A_COPPERWELD;
	geometric_mean_radius 0.003940;
};

object underground_line_conductor {
	name CLP_3C_#2_5_12_16KVcond;
	conductor_resistance 1.1096490000000001e+00;
	neutral_gmr 0.0208;
	outer_diameter 2.2193000000000001e+01;
	neutral_strands 10;
	neutral_resistance 14.872;
	neutral_diameter 0.0640837;
	conductor_diameter 2.7000000000000000e+01;
	conductor_gmr 9.0;
};

object underground_line_conductor {
	name CLP_3C_750_5_12_16KVcond;
	conductor_resistance 1.2452700000000000e-01;
	neutral_gmr 0.0208;
	outer_diameter 4.1878000000000000e+01;
	neutral_strands 10;
	neutral_resistance 14.872;
	neutral_diameter 0.0640837;
	conductor_diameter 2.7000000000000000e+01;
	conductor_gmr 9.0;
};

object underground_line_conductor {
	name DEFAULTcond;
	conductor_resistance 8.8234999999999994e-02;
	neutral_gmr 7.26433333333;
	outer_diameter 2.9792999999999999e+01;
	neutral_strands 7;
	neutral_resistance 14.872;
	neutral_diameter 2.1792999999999999e+01;
	conductor_diameter 2.7000000000000000e+01;
	conductor_gmr 9.0;
};

object underground_line_conductor {
	name CLP_3C_350_5_12_16KVcond;
	conductor_resistance 2.2119600000000000e-01;
	neutral_gmr 0.0208;
	outer_diameter 3.2225999999999999e+01;
	neutral_strands 10;
	neutral_resistance 14.872;
	neutral_diameter 0.0640837;
	conductor_diameter 2.7000000000000000e+01;
	conductor_gmr 9.0;
};

object underground_line_conductor {
	name BUScond;
	conductor_resistance 0.0000000000000000e+00;
	neutral_gmr 3.894638;
	outer_diameter 2.2193000000000001e+01;
	neutral_strands 7;
	neutral_resistance 14.872;
	neutral_diameter 1.1683914000000000e+01;
	conductor_diameter 2.7000000000000000e+01;
	conductor_gmr 9.0;
};

object underground_line_conductor {
	name CLP_3C_1000_5_12_16KVcond;
	conductor_resistance 9.5686999999999994e-02;
	neutral_gmr 0.0208;
	outer_diameter 4.6450000000000003e+01;
	neutral_strands 10;
	neutral_resistance 14.872;
	neutral_diameter 0.0640837;
	conductor_diameter 2.7000000000000000e+01;
	conductor_gmr 9.0;
};

object underground_line_conductor {
	name CLP_3C_1_0_5_12_16KVcond;
	conductor_resistance 7.0483700000000005e-01;
	neutral_gmr 0.0208;
	outer_diameter 2.4225000000000001e+01;
	neutral_strands 10;
	neutral_resistance 14.872;
	neutral_diameter 0.0640837;
	conductor_diameter 2.7000000000000000e+01;
	conductor_gmr 9.0;
};

object underground_line_conductor {
	name CLP_1C_1000_5_12_16KVcond;
	conductor_resistance 3.5327300000000000e-01;
	neutral_gmr 0.0208;
	outer_diameter 4.6450000000000003e+01;
	neutral_strands 10;
	neutral_resistance 14.872;
	neutral_diameter 0.0640837;
	conductor_diameter 2.7000000000000000e+01;
	conductor_gmr 9.0;
};

object underground_line_conductor {
	name CLP_1C_#2_5_12_16KVcond;
	conductor_resistance 1.2968740000000001e+00;
	neutral_gmr 0.0208;
	outer_diameter 2.2193000000000001e+01;
	neutral_strands 10;
	neutral_resistance 14.872;
	neutral_diameter 0.0640837;
	conductor_diameter 2.7000000000000000e+01;
	conductor_gmr 9.0;
};

object line_spacing {
	distance_AN 3.000000;
	name STANDARD_4Wohsps;
	distance_CN 6.330000;
	distance_BC 3.000000;
	distance_AB 6.330000;
	distance_BN 3.330000;
	distance_AC 9.330000;
};

object line_spacing {
	distance_AN 40.000000;
	name 3W_12_16KVohsps;
	distance_CN 41.073701;
	distance_BC 3.000000;
	distance_AB 6.330000;
	distance_BN 40.497764;
	distance_AC 9.330000;
};

object line_spacing {
	distance_AN 12.300000;
	name DEFAULTohsps;
	distance_CN 6.300000;
	distance_BC 9.300000;
	distance_AB 9.300000;
	distance_BN 3.000000;
	distance_AC 18.600000;
};

object line_spacing {
	distance_AN 3.000000;
	name STANDARD_3W_1Nohsps;
	distance_CN 6.330000;
	distance_BC 3.000000;
	distance_AB 6.330000;
	distance_BN 3.330000;
	distance_AC 9.330000;
};

object line_spacing {
	distance_AN 3.000000;
	name 3W_1N_12_16KVohsps;
	distance_CN 6.330000;
	distance_BC 3.000000;
	distance_AB 6.330000;
	distance_BN 3.330000;
	distance_AC 9.330000;
};

object line_spacing {
	distance_AN 40.000000;
	name STANDARD_3Wohsps;
	distance_CN 41.073701;
	distance_BC 3.000000;
	distance_AB 6.330000;
	distance_BN 40.497764;
	distance_AC 9.330000;
};

object line_configuration {
	name DEFAULTconf;
	spacing DEFAULTohsps;
	conductor_N ACSR_#6;
	conductor_A ACSR_#6;
	conductor_C ACSR_#6;
	conductor_B ACSR_#6;
};

object line_configuration {
	name CU_3C_1_0conf;
	spacing STANDARD_3Wohsps;
	conductor_N NONE;
	conductor_A CU_1_0;
	conductor_C CU_1_0;
	conductor_B CU_1_0;
};

object line_spacing {
	distance_BC 0.5;
	name CLP_3C_350_5_12_16KVsps;
	distance_AB 0.05;
	distance_AC 1.0;
};

object line_spacing {
	distance_BC 0.5;
	name CLP_1C_1000_5_12_16KVsps;
	distance_AB 0.05;
	distance_AC 1.0;
};

object line_spacing {
	distance_BC 0.5;
	name CLP_3C_1_0_5_12_16KVsps;
	distance_AB 0.05;
	distance_AC 1.0;
};

object line_spacing {
	distance_BC 0.5;
	name DEFAULTsps;
	distance_AB 0.05;
	distance_AC 1.0;
};

object line_spacing {
	distance_BC 0.5;
	name CLP_1C_#2_5_12_16KVsps;
	distance_AB 0.05;
	distance_AC 1.0;
};

object line_spacing {
	distance_BC 0.5;
	name CLP_3C_#2_5_12_16KVsps;
	distance_AB 0.05;
	distance_AC 1.0;
};

object line_spacing {
	distance_BC 0.5;
	name CLP_3C_750_5_12_16KVsps;
	distance_AB 0.05;
	distance_AC 1.0;
};

object line_spacing {
	distance_BC 0.5;
	name BUSsps;
	distance_AB 0.05;
	distance_AC 1.0;
};

object line_spacing {
	distance_BC 0.5;
	name CLP_3C_1000_5_12_16KVsps;
	distance_AB 0.05;
	distance_AC 1.0;
};

object line_configuration {
	name CLP_3C_750_5_12_16KVphABC;
	spacing CLP_3C_750_5_12_16KVsps;
	conductor_A CLP_3C_750_5_12_16KVcond;
	conductor_C CLP_3C_750_5_12_16KVcond;
	conductor_B CLP_3C_750_5_12_16KVcond;
};

object line_configuration {
	spacing CLP_1C_#2_5_12_16KVsps;
	conductor_A CLP_1C_#2_5_12_16KVcond;
	name CLP_1C_#2_5_12_16KVphA;
};

object line_configuration {
	name CLP_3C_#2_5_12_16KVphABC;
	spacing CLP_3C_#2_5_12_16KVsps;
	conductor_A CLP_3C_#2_5_12_16KVcond;
	conductor_C CLP_3C_#2_5_12_16KVcond;
	conductor_B CLP_3C_#2_5_12_16KVcond;
};

object line_configuration {
	name DEFAULTphABC;
	spacing DEFAULTsps;
	conductor_A DEFAULTcond;
	conductor_C DEFAULTcond;
	conductor_B DEFAULTcond;
};

object line_configuration {
	name BUSphABC;
	spacing BUSsps;
	conductor_A BUScond;
	conductor_C BUScond;
	conductor_B BUScond;
};

object line_configuration {
	name CLP_3C_1000_5_12_16KVphABC;
	spacing CLP_3C_1000_5_12_16KVsps;
	conductor_A CLP_3C_1000_5_12_16KVcond;
	conductor_C CLP_3C_1000_5_12_16KVcond;
	conductor_B CLP_3C_1000_5_12_16KVcond;
};

object line_configuration {
	spacing CLP_1C_1000_5_12_16KVsps;
	conductor_A CLP_1C_1000_5_12_16KVcond;
	name CLP_1C_1000_5_12_16KVphA;
};

object line_configuration {
	name CLP_3C_1_0_5_12_16KVphABC;
	spacing CLP_3C_1_0_5_12_16KVsps;
	conductor_A CLP_3C_1_0_5_12_16KVcond;
	conductor_C CLP_3C_1_0_5_12_16KVcond;
	conductor_B CLP_3C_1_0_5_12_16KVcond;
};

object line_configuration {
	name CLP_3C_350_5_12_16KVphABC;
	spacing CLP_3C_350_5_12_16KVsps;
	conductor_A CLP_3C_350_5_12_16KVcond;
	conductor_C CLP_3C_350_5_12_16KVcond;
	conductor_B CLP_3C_350_5_12_16KVcond;
};

object transformer_configuration {
	powerC_rating 5000;
	name SPCTconfigP5398623C;
	primary_voltage 7199.55785679;
	install_type POLETOP;
	secondary_voltage 120;
	connect_type SINGLE_PHASE_CENTER_TAPPED;
	impedance 0.00033+0.0022j;
	power_rating 5000;
};

object transformer_configuration {
	name SPCTconfigP5398623B;
	primary_voltage 7199.55785679;
	install_type POLETOP;
	secondary_voltage 120;
	connect_type SINGLE_PHASE_CENTER_TAPPED;
	impedance 0.00033+0.0022j;
	powerB_rating 5000;
	power_rating 5000;
};

object transformer_configuration {
	name SPCTconfigP5398623A;
	primary_voltage 7199.55785679;
	install_type POLETOP;
	secondary_voltage 120;
	connect_type SINGLE_PHASE_CENTER_TAPPED;
	impedance 0.00033+0.0022j;
	powerA_rating 5000;
	power_rating 5000;
};

object transformer_configuration {
	name SPCTconfigP5379641A;
	primary_voltage 7199.55785679;
	install_type POLETOP;
	secondary_voltage 120;
	connect_type SINGLE_PHASE_CENTER_TAPPED;
	impedance 0.00033+0.0022j;
	powerA_rating 5000;
	power_rating 5000;
};

object transformer_configuration {
	name SPCTconfigP5379641B;
	primary_voltage 7199.55785679;
	install_type POLETOP;
	secondary_voltage 120;
	connect_type SINGLE_PHASE_CENTER_TAPPED;
	impedance 0.00033+0.0022j;
	powerB_rating 5000;
	power_rating 5000;
};

object transformer_configuration {
	powerC_rating 5000;
	name SPCTconfigP5379641C;
	primary_voltage 7199.55785679;
	install_type POLETOP;
	secondary_voltage 120;
	connect_type SINGLE_PHASE_CENTER_TAPPED;
	impedance 0.00033+0.0022j;
	power_rating 5000;
};

object transformer_configuration {
	name SPCTconfigP5301146A;
	primary_voltage 7199.55785679;
	install_type POLETOP;
	secondary_voltage 120;
	connect_type SINGLE_PHASE_CENTER_TAPPED;
	impedance 0.00033+0.0022j;
	powerA_rating 5000;
	power_rating 5000;
};

object transformer_configuration {
	name SPCTconfigP5506374B;
	primary_voltage 7199.55785679;
	install_type POLETOP;
	secondary_voltage 120;
	connect_type SINGLE_PHASE_CENTER_TAPPED;
	impedance 0.00033+0.0022j;
	powerB_rating 5000;
	power_rating 5000;
};

object transformer_configuration {
	name SPCTconfigP5075203A;
	primary_voltage 7199.55785679;
	install_type POLETOP;
	secondary_voltage 120;
	connect_type SINGLE_PHASE_CENTER_TAPPED;
	impedance 0.00033+0.0022j;
	powerA_rating 5000;
	power_rating 5000;
};

object transformer_configuration {
	powerC_rating 5000;
	name SPCTconfigP5075203C;
	primary_voltage 7199.55785679;
	install_type POLETOP;
	secondary_voltage 120;
	connect_type SINGLE_PHASE_CENTER_TAPPED;
	impedance 0.00033+0.0022j;
	power_rating 5000;
};

object transformer_configuration {
	name SPCTconfigP5412515B;
	primary_voltage 7199.55785679;
	install_type POLETOP;
	secondary_voltage 120;
	connect_type SINGLE_PHASE_CENTER_TAPPED;
	impedance 0.00033+0.0022j;
	powerB_rating 5000;
	power_rating 5000;
};

object transformer_configuration {
	powerC_rating 5000;
	name SPCTconfigP5301146C;
	primary_voltage 7199.55785679;
	install_type POLETOP;
	secondary_voltage 120;
	connect_type SINGLE_PHASE_CENTER_TAPPED;
	impedance 0.00033+0.0022j;
	power_rating 5000;
};

object transformer_configuration {
	name SPCTconfigP5435787B;
	primary_voltage 7199.55785679;
	install_type POLETOP;
	secondary_voltage 120;
	connect_type SINGLE_PHASE_CENTER_TAPPED;
	impedance 0.00033+0.0022j;
	powerB_rating 5000;
	power_rating 5000;
};

object transformer_configuration {
	powerC_rating 5000;
	name SPCTconfigP5435787C;
	primary_voltage 7199.55785679;
	install_type POLETOP;
	secondary_voltage 120;
	connect_type SINGLE_PHASE_CENTER_TAPPED;
	impedance 0.00033+0.0022j;
	power_rating 5000;
};

object transformer_configuration {
	name SPCTconfigP5301146B;
	primary_voltage 7199.55785679;
	install_type POLETOP;
	secondary_voltage 120;
	connect_type SINGLE_PHASE_CENTER_TAPPED;
	impedance 0.00033+0.0022j;
	powerB_rating 5000;
	power_rating 5000;
};

object transformer_configuration {
	powerC_rating 5000;
	name SPCTconfigV5079055C;
	primary_voltage 7199.55785679;
	install_type POLETOP;
	secondary_voltage 120;
	connect_type SINGLE_PHASE_CENTER_TAPPED;
	impedance 0.00033+0.0022j;
	power_rating 5000;
};

object transformer_configuration {
	powerC_rating 5000;
	name SPCTconfigP5161347C;
	primary_voltage 7199.55785679;
	install_type POLETOP;
	secondary_voltage 120;
	connect_type SINGLE_PHASE_CENTER_TAPPED;
	impedance 0.00033+0.0022j;
	power_rating 5000;
};

object transformer_configuration {
	name SPCTconfigP5435787A;
	primary_voltage 7199.55785679;
	install_type POLETOP;
	secondary_voltage 120;
	connect_type SINGLE_PHASE_CENTER_TAPPED;
	impedance 0.00033+0.0022j;
	powerA_rating 5000;
	power_rating 5000;
};

object transformer_configuration {
	name SPCTconfigP5161347A;
	primary_voltage 7199.55785679;
	install_type POLETOP;
	secondary_voltage 120;
	connect_type SINGLE_PHASE_CENTER_TAPPED;
	impedance 0.00033+0.0022j;
	powerA_rating 5000;
	power_rating 5000;
};

object transformer_configuration {
	name SPCTconfigP5301145A;
	primary_voltage 7199.55785679;
	install_type POLETOP;
	secondary_voltage 120;
	connect_type SINGLE_PHASE_CENTER_TAPPED;
	impedance 0.00033+0.0022j;
	powerA_rating 5000;
	power_rating 5000;
};

object transformer_configuration {
	name SPCTconfigP5301145B;
	primary_voltage 7199.55785679;
	install_type POLETOP;
	secondary_voltage 120;
	connect_type SINGLE_PHASE_CENTER_TAPPED;
	impedance 0.00033+0.0022j;
	powerB_rating 5000;
	power_rating 5000;
};

object transformer_configuration {
	powerC_rating 5000;
	name SPCTconfigP5301145C;
	primary_voltage 7199.55785679;
	install_type POLETOP;
	secondary_voltage 120;
	connect_type SINGLE_PHASE_CENTER_TAPPED;
	impedance 0.00033+0.0022j;
	power_rating 5000;
};

object transformer_configuration {
	name SPCTconfigP5312090A;
	primary_voltage 7199.55785679;
	install_type POLETOP;
	secondary_voltage 120;
	connect_type SINGLE_PHASE_CENTER_TAPPED;
	impedance 0.00033+0.0022j;
	powerA_rating 5000;
	power_rating 5000;
};

object transformer_configuration {
	powerC_rating 5000;
	name SPCTconfigP5312090C;
	primary_voltage 7199.55785679;
	install_type POLETOP;
	secondary_voltage 120;
	connect_type SINGLE_PHASE_CENTER_TAPPED;
	impedance 0.00033+0.0022j;
	power_rating 5000;
};

object transformer_configuration {
	name SPCTconfigP5312090B;
	primary_voltage 7199.55785679;
	install_type POLETOP;
	secondary_voltage 120;
	connect_type SINGLE_PHASE_CENTER_TAPPED;
	impedance 0.00033+0.0022j;
	powerB_rating 5000;
	power_rating 5000;
};

object transformer_configuration {
	name SPCTconfigV5161137T1B;
	primary_voltage 7199.55785679;
	install_type POLETOP;
	secondary_voltage 120;
	connect_type SINGLE_PHASE_CENTER_TAPPED;
	impedance 0.00033+0.0022j;
	powerB_rating 2000;
	power_rating 2000;
};

object transformer_configuration {
	powerC_rating 2000;
	name SPCTconfigV5161137T1C;
	primary_voltage 7199.55785679;
	install_type POLETOP;
	secondary_voltage 120;
	connect_type SINGLE_PHASE_CENTER_TAPPED;
	impedance 0.00033+0.0022j;
	power_rating 2000;
};

object transformer_configuration {
	name SPCTconfigP5161347B;
	primary_voltage 7199.55785679;
	install_type POLETOP;
	secondary_voltage 120;
	connect_type SINGLE_PHASE_CENTER_TAPPED;
	impedance 0.00033+0.0022j;
	powerB_rating 5000;
	power_rating 5000;
};

object transformer_configuration {
	name SPCTconfigV5161137T1A;
	primary_voltage 7199.55785679;
	install_type POLETOP;
	secondary_voltage 120;
	connect_type SINGLE_PHASE_CENTER_TAPPED;
	impedance 0.00033+0.0022j;
	powerA_rating 2000;
	power_rating 2000;
};

object transformer_configuration {
	name SPCTconfigP5336835B;
	primary_voltage 7199.55785679;
	install_type POLETOP;
	secondary_voltage 120;
	connect_type SINGLE_PHASE_CENTER_TAPPED;
	impedance 0.00033+0.0022j;
	powerB_rating 5000;
	power_rating 5000;
};

object transformer_configuration {
	powerC_rating 5000;
	name SPCTconfigP5336835C;
	primary_voltage 7199.55785679;
	install_type POLETOP;
	secondary_voltage 120;
	connect_type SINGLE_PHASE_CENTER_TAPPED;
	impedance 0.00033+0.0022j;
	power_rating 5000;
};

object transformer_configuration {
	name SPCTconfigP5336835A;
	primary_voltage 7199.55785679;
	install_type POLETOP;
	secondary_voltage 120;
	connect_type SINGLE_PHASE_CENTER_TAPPED;
	impedance 0.00033+0.0022j;
	powerA_rating 5000;
	power_rating 5000;
};

object transformer_configuration {
	name SPCTconfigB5301147A;
	primary_voltage 7199.55785679;
	install_type POLETOP;
	secondary_voltage 120;
	connect_type SINGLE_PHASE_CENTER_TAPPED;
	impedance 0.00033+0.0022j;
	powerA_rating 3000;
	power_rating 3000;
};

object transformer_configuration {
	name SPCTconfigP5398622A;
	primary_voltage 7199.55785679;
	install_type POLETOP;
	secondary_voltage 120;
	connect_type SINGLE_PHASE_CENTER_TAPPED;
	impedance 0.00033+0.0022j;
	powerA_rating 5000;
	power_rating 5000;
};

object transformer_configuration {
	name SPCTconfigP5398622B;
	primary_voltage 7199.55785679;
	install_type POLETOP;
	secondary_voltage 120;
	connect_type SINGLE_PHASE_CENTER_TAPPED;
	impedance 0.00033+0.0022j;
	powerB_rating 5000;
	power_rating 5000;
};

object transformer_configuration {
	powerC_rating 5000;
	name SPCTconfigP5398622C;
	primary_voltage 7199.55785679;
	install_type POLETOP;
	secondary_voltage 120;
	connect_type SINGLE_PHASE_CENTER_TAPPED;
	impedance 0.00033+0.0022j;
	power_rating 5000;
};

object transformer_configuration {
	powerC_rating 5000;
	name SPCTconfigP5435106C;
	primary_voltage 7199.55785679;
	install_type POLETOP;
	secondary_voltage 120;
	connect_type SINGLE_PHASE_CENTER_TAPPED;
	impedance 0.00033+0.0022j;
	power_rating 5000;
};

object transformer_configuration {
	name SPCTconfigP5435106B;
	primary_voltage 7199.55785679;
	install_type POLETOP;
	secondary_voltage 120;
	connect_type SINGLE_PHASE_CENTER_TAPPED;
	impedance 0.00033+0.0022j;
	powerB_rating 5000;
	power_rating 5000;
};

object transformer_configuration {
	name SPCTconfigP5435106A;
	primary_voltage 7199.55785679;
	install_type POLETOP;
	secondary_voltage 120;
	connect_type SINGLE_PHASE_CENTER_TAPPED;
	impedance 0.00033+0.0022j;
	powerA_rating 5000;
	power_rating 5000;
};

object transformer_configuration {
	name SPCTconfigV5079055A;
	primary_voltage 7199.55785679;
	install_type POLETOP;
	secondary_voltage 120;
	connect_type SINGLE_PHASE_CENTER_TAPPED;
	impedance 0.00033+0.0022j;
	powerA_rating 5000;
	power_rating 5000;
};

object transformer_configuration {
	name SPCTconfigP5161135A;
	primary_voltage 7199.55785679;
	install_type POLETOP;
	secondary_voltage 120;
	connect_type SINGLE_PHASE_CENTER_TAPPED;
	impedance 0.00033+0.0022j;
	powerA_rating 1000;
	power_rating 1000;
};

object transformer_configuration {
	powerC_rating 1000;
	name SPCTconfigP5161135C;
	primary_voltage 7199.55785679;
	install_type POLETOP;
	secondary_voltage 120;
	connect_type SINGLE_PHASE_CENTER_TAPPED;
	impedance 0.00033+0.0022j;
	power_rating 1000;
};

object transformer_configuration {
	name SPCTconfigP5365275A;
	primary_voltage 7199.55785679;
	install_type POLETOP;
	secondary_voltage 120;
	connect_type SINGLE_PHASE_CENTER_TAPPED;
	impedance 0.00033+0.0022j;
	powerA_rating 5000;
	power_rating 5000;
};

object transformer_configuration {
	name SPCTconfigP5365275B;
	primary_voltage 7199.55785679;
	install_type POLETOP;
	secondary_voltage 120;
	connect_type SINGLE_PHASE_CENTER_TAPPED;
	impedance 0.00033+0.0022j;
	powerB_rating 5000;
	power_rating 5000;
};

object transformer_configuration {
	powerC_rating 5000;
	name SPCTconfigP5365275C;
	primary_voltage 7199.55785679;
	install_type POLETOP;
	secondary_voltage 120;
	connect_type SINGLE_PHASE_CENTER_TAPPED;
	impedance 0.00033+0.0022j;
	power_rating 5000;
};

object transformer_configuration {
	name SPCTconfigV5079055B;
	primary_voltage 7199.55785679;
	install_type POLETOP;
	secondary_voltage 120;
	connect_type SINGLE_PHASE_CENTER_TAPPED;
	impedance 0.00033+0.0022j;
	powerB_rating 5000;
	power_rating 5000;
};

object transformer_configuration {
	name SPCTconfigP5075203B;
	primary_voltage 7199.55785679;
	install_type POLETOP;
	secondary_voltage 120;
	connect_type SINGLE_PHASE_CENTER_TAPPED;
	impedance 0.00033+0.0022j;
	powerB_rating 5000;
	power_rating 5000;
};

object transformer_configuration {
	name SPCTconfigV5071124A;
	primary_voltage 7199.55785679;
	install_type POLETOP;
	secondary_voltage 120;
	connect_type SINGLE_PHASE_CENTER_TAPPED;
	impedance 0.00033+0.0022j;
	powerA_rating 5000;
	power_rating 5000;
};

object transformer_configuration {
	powerC_rating 5000;
	name SPCTconfigP5412515C;
	primary_voltage 7199.55785679;
	install_type POLETOP;
	secondary_voltage 120;
	connect_type SINGLE_PHASE_CENTER_TAPPED;
	impedance 0.00033+0.0022j;
	power_rating 5000;
};

object transformer_configuration {
	name SPCTconfigP5412515A;
	primary_voltage 7199.55785679;
	install_type POLETOP;
	secondary_voltage 120;
	connect_type SINGLE_PHASE_CENTER_TAPPED;
	impedance 0.00033+0.0022j;
	powerA_rating 5000;
	power_rating 5000;
};

object transformer_configuration {
	powerC_rating 5000;
	name SPCTconfigJ052A_2PTC;
	primary_voltage 7199.55785679;
	install_type POLETOP;
	secondary_voltage 120;
	connect_type SINGLE_PHASE_CENTER_TAPPED;
	impedance 0.00033+0.0022j;
	power_rating 5000;
};

object transformer_configuration {
	name SPCTconfigJ052A_2PTB;
	primary_voltage 7199.55785679;
	install_type POLETOP;
	secondary_voltage 120;
	connect_type SINGLE_PHASE_CENTER_TAPPED;
	impedance 0.00033+0.0022j;
	powerB_rating 5000;
	power_rating 5000;
};

object transformer_configuration {
	name SPCTconfigJ052A_2PTA;
	primary_voltage 7199.55785679;
	install_type POLETOP;
	secondary_voltage 120;
	connect_type SINGLE_PHASE_CENTER_TAPPED;
	impedance 0.00033+0.0022j;
	powerA_rating 5000;
	power_rating 5000;
};

object transformer_configuration {
	powerC_rating 5000;
	name SPCTconfigP5506374C;
	primary_voltage 7199.55785679;
	install_type POLETOP;
	secondary_voltage 120;
	connect_type SINGLE_PHASE_CENTER_TAPPED;
	impedance 0.00033+0.0022j;
	power_rating 5000;
};

object transformer_configuration {
	name SPCTconfigP5130856A;
	primary_voltage 7199.55785679;
	install_type POLETOP;
	secondary_voltage 120;
	connect_type SINGLE_PHASE_CENTER_TAPPED;
	impedance 0.00033+0.0022j;
	powerA_rating 5000;
	power_rating 5000;
};

object transformer_configuration {
	powerC_rating 5000;
	name SPCTconfigP5130856C;
	primary_voltage 7199.55785679;
	install_type POLETOP;
	secondary_voltage 120;
	connect_type SINGLE_PHASE_CENTER_TAPPED;
	impedance 0.00033+0.0022j;
	power_rating 5000;
};

object transformer_configuration {
	name SPCTconfigP5130856B;
	primary_voltage 7199.55785679;
	install_type POLETOP;
	secondary_voltage 120;
	connect_type SINGLE_PHASE_CENTER_TAPPED;
	impedance 0.00033+0.0022j;
	powerB_rating 5000;
	power_rating 5000;
};

object transformer_configuration {
	name SPCTconfigP5506374A;
	primary_voltage 7199.55785679;
	install_type POLETOP;
	secondary_voltage 120;
	connect_type SINGLE_PHASE_CENTER_TAPPED;
	impedance 0.00033+0.0022j;
	powerA_rating 5000;
	power_rating 5000;
};

object transformer_configuration {
	powerC_rating 5000;
	name SPCTconfigP5510319C;
	primary_voltage 7199.55785679;
	install_type POLETOP;
	secondary_voltage 120;
	connect_type SINGLE_PHASE_CENTER_TAPPED;
	impedance 0.00033+0.0022j;
	power_rating 5000;
};

object transformer_configuration {
	name SPCTconfigP5510319B;
	primary_voltage 7199.55785679;
	install_type POLETOP;
	secondary_voltage 120;
	connect_type SINGLE_PHASE_CENTER_TAPPED;
	impedance 0.00033+0.0022j;
	powerB_rating 5000;
	power_rating 5000;
};

object transformer_configuration {
	name SPCTconfigP5510319A;
	primary_voltage 7199.55785679;
	install_type POLETOP;
	secondary_voltage 120;
	connect_type SINGLE_PHASE_CENTER_TAPPED;
	impedance 0.00033+0.0022j;
	powerA_rating 5000;
	power_rating 5000;
};

object transformer_configuration {
	powerC_rating 5000;
	name SPCTconfigP5312089C;
	primary_voltage 7199.55785679;
	install_type POLETOP;
	secondary_voltage 120;
	connect_type SINGLE_PHASE_CENTER_TAPPED;
	impedance 0.00033+0.0022j;
	power_rating 5000;
};

object transformer_configuration {
	name SPCTconfigP5312089B;
	primary_voltage 7199.55785679;
	install_type POLETOP;
	secondary_voltage 120;
	connect_type SINGLE_PHASE_CENTER_TAPPED;
	impedance 0.00033+0.0022j;
	powerB_rating 5000;
	power_rating 5000;
};

object transformer_configuration {
	name SPCTconfigP5312089A;
	primary_voltage 7199.55785679;
	install_type POLETOP;
	secondary_voltage 120;
	connect_type SINGLE_PHASE_CENTER_TAPPED;
	impedance 0.00033+0.0022j;
	powerA_rating 5000;
	power_rating 5000;
};

object transformer_configuration {
	name SPCTconfigP5161135B;
	primary_voltage 7199.55785679;
	install_type POLETOP;
	secondary_voltage 120;
	connect_type SINGLE_PHASE_CENTER_TAPPED;
	impedance 0.00033+0.0022j;
	powerB_rating 1000;
	power_rating 1000;
};

object meter {
	phases ABCN;
	name n09808;
	bustype SWING;
	nominal_voltage 7199.55785679;
};

object node {
	phases ABCN;
	name n27262176_09808;
	nominal_voltage 7199.55785679;
};

object node {
	phases ABCN;
	name nJ052A_1P_09808;
	nominal_voltage 7199.55785679;
};

object node {
	phases ABCN;
	name nJ637A_2_F_09808;
	nominal_voltage 7199.55785679;
};

object node {
	phases ABCN;
	name nJ141A_2P_09808;
	nominal_voltage 7199.55785679;
};

object node {
	phases ABCN;
	name nP5336835_1_T_09808;
	nominal_voltage 7199.55785679;
};

object node {
	phases ABCN;
	name nND27301292_09808;
	nominal_voltage 7199.55785679;
};

object node {
	phases ABCN;
	name nP5398622_A_09808;
	nominal_voltage 7199.55785679;
};

object node {
	phases ABCN;
	name nP5510319_1_T_09808;
	nominal_voltage 7199.55785679;
};

object node {
	phases ABCN;
	name n27258606_09808;
	nominal_voltage 7199.55785679;
};

object node {
	phases ABCN;
	name n27261124_09808;
	nominal_voltage 7199.55785679;
};

object node {
	phases ABCN;
	name n164885506_09808;
	nominal_voltage 7199.55785679;
};

object node {
	phases ABCN;
	name nJ052A_2_F_09808;
	nominal_voltage 7199.55785679;
};

object node {
	phases ABCN;
	name nP5130856_1_09808;
	nominal_voltage 7199.55785679;
};

object node {
	phases ABCN;
	name nP5379641_1_T_09808;
	nominal_voltage 7199.55785679;
};

object node {
	phases ABCN;
	name n95856923_09808_1;
	nominal_voltage 7199.55785679;
};

object node {
	phases ABCN;
	name nJ052A_3P_09808;
	nominal_voltage 7199.55785679;
};

object node {
	phases ABCN;
	name nP5398622_B_T_09808;
	nominal_voltage 7199.55785679;
};

object node {
	phases ABCN;
	name n27258622_09808;
	nominal_voltage 7199.55785679;
};

object node {
	phases ABCN;
	name nGS0491_1_09808_1;
	nominal_voltage 7199.55785679;
};

object node {
	phases ABCN;
	name n27261290_09808;
	nominal_voltage 7199.55785679;
};

object node {
	phases AN;
	name nV5071124_09808;
	nominal_voltage 7199.55785679;
};

object node {
	phases ABCN;
	name nPME2088_1_09808;
	nominal_voltage 7199.55785679;
};

object node {
	phases ABCN;
	name n27261598_09808;
	nominal_voltage 7199.55785679;
};

object node {
	phases ABCN;
	name nP5130856_1_T_09808;
	nominal_voltage 7199.55785679;
};

object node {
	phases ABCN;
	name nP5312090_1_T_09808;
	nominal_voltage 7199.55785679;
};

object node {
	phases ABCN;
	name nP5336835_1_09808;
	nominal_voltage 7199.55785679;
};

object node {
	phases ABCN;
	name nGS0491_5_09808;
	nominal_voltage 7199.55785679;
};

object node {
	phases ABCN;
	name n95856888_09808_1;
	nominal_voltage 7199.55785679;
};

object node {
	phases ABCN;
	name n27217557_09808;
	nominal_voltage 7199.55785679;
};

object node {
	phases ABCN;
	name nJ638A_2_F_09808;
	nominal_voltage 7199.55785679;
};

object node {
	phases ABCN;
	name nPME2088_2_09808;
	nominal_voltage 7199.55785679;
};

object node {
	phases ABCN;
	name nBS2418_R_09808;
	nominal_voltage 7199.55785679;
};

object node {
	phases ABCN;
	name nP5301146_2_09808;
	nominal_voltage 7199.55785679;
};

object node {
	phases ABCN;
	name n27259957_09808;
	nominal_voltage 7199.55785679;
};

object node {
	phases ABCN;
	name nND27262276_09808;
	nominal_voltage 7199.55785679;
};

object node {
	phases ABCN;
	name nJ141A_3P_09808;
	nominal_voltage 7199.55785679;
};

object node {
	phases ABCN;
	name nJ055A_1P_09808;
	nominal_voltage 7199.55785679;
};

object node {
	phases ABCN;
	name n95856923_09808;
	nominal_voltage 7199.55785679;
};

object node {
	phases ABCN;
	name nBS2418_T_T_09808;
	nominal_voltage 7199.55785679;
};

object node {
	phases ABCN;
	name nJ055A_2P_09808;
	nominal_voltage 7199.55785679;
};

object node {
	phases AN;
	name nB5301147_1_09808;
	nominal_voltage 7199.55785679;
};

object node {
	phases ABCN;
	name nP5506374_1_09808;
	nominal_voltage 7199.55785679;
};

object node {
	phases ABCN;
	name n27216701_09808;
	nominal_voltage 7199.55785679;
};

object node {
	phases ABCN;
	name n164885625_09808;
	nominal_voltage 7199.55785679;
};

object node {
	phases ABCN;
	name nPME2088_4_09808;
	nominal_voltage 7199.55785679;
};

object node {
	phases ABCN;
	name nGS0850_1_T_09808;
	nominal_voltage 7199.55785679;
};

object node {
	phases ABCN;
	name nP5301146_F_09808;
	nominal_voltage 7199.55785679;
};

object node {
	phases ABCN;
	name nOS1931_5_09808_1;
	nominal_voltage 7199.55785679;
};

object node {
	phases ABCN;
	name nPME2088_2_09808_1;
	nominal_voltage 7199.55785679;
};

object node {
	phases ABCN;
	name nV5161137T1_09808;
	nominal_voltage 7199.55785679;
};

object node {
	phases ABCN;
	name nND164886054_09808;
	nominal_voltage 7199.55785679;
};

object node {
	phases ABCN;
	name n27261782_09808;
	nominal_voltage 7199.55785679;
};

object node {
	phases ABCN;
	name nJ637A_3P_09808;
	nominal_voltage 7199.55785679;
};

object node {
	phases ABCN;
	name nP5435106_1_09808;
	nominal_voltage 7199.55785679;
};

object node {
	phases ABCN;
	name nJ638A_1P_09808;
	nominal_voltage 7199.55785679;
};

object node {
	phases ABCN;
	name nGS2219_2_09808_1;
	nominal_voltage 7199.55785679;
};

object node {
	phases ABCN;
	name nP5312090_1_09808;
	nominal_voltage 7199.55785679;
};

object node {
	phases ABCN;
	name n27259949_09808;
	nominal_voltage 7199.55785679;
};

object node {
	phases ABCN;
	name n27261132_09808;
	nominal_voltage 7199.55785679;
};

object node {
	phases ABCN;
	name nJ141A_1P_09808;
	nominal_voltage 7199.55785679;
};

object node {
	phases ABCN;
	name nBS2418_T_09808;
	nominal_voltage 7199.55785679;
};

object node {
	phases ABCN;
	name nJ638A_3P_09808;
	nominal_voltage 7199.55785679;
};

object node {
	phases ABCN;
	name nJ055A_3P_09808;
	nominal_voltage 7199.55785679;
};

object node {
	phases ABCN;
	name nP5435787_09808;
	nominal_voltage 7199.55785679;
};

object node {
	phases ABCN;
	name n164885533_09808;
	nominal_voltage 7199.55785679;
};

object node {
	phases ABCN;
	name nP5398622_T_F_09808;
	nominal_voltage 7199.55785679;
};

object node {
	phases ABCN;
	name nPME1143_4_09808_1;
	nominal_voltage 7199.55785679;
};

object node {
	phases ABCN;
	name nGS0491_1_09808;
	nominal_voltage 7199.55785679;
};

object node {
	phases ABCN;
	name nGS2219_3_09808;
	nominal_voltage 7199.55785679;
};

object node {
	phases ABCN;
	name nOS1931_2_09808;
	nominal_voltage 7199.55785679;
};

object node {
	phases ABCN;
	name nP5365275_1_T_09808;
	nominal_voltage 7199.55785679;
};

object node {
	phases ABCN;
	name nP5510319_1_09808;
	nominal_voltage 7199.55785679;
};

object node {
	phases ABCN;
	name nPME2088_4_09808_1;
	nominal_voltage 7199.55785679;
};

object node {
	phases ABCN;
	name n164885524_09808;
	nominal_voltage 7199.55785679;
};

object node {
	phases ABCN;
	name nP5412515_1_09808;
	nominal_voltage 7199.55785679;
};

object node {
	phases ABCN;
	name n11319_F;
	nominal_voltage 7199.55785679;
};

object node {
	phases ABCN;
	name n27261411_09808;
	nominal_voltage 7199.55785679;
};

object node {
	phases ABCN;
	name nV5079055_09808;
	nominal_voltage 7199.55785679;
};

object node {
	phases ABCN;
	name nGS0862_4_09808;
	nominal_voltage 7199.55785679;
};

object node {
	phases ABCN;
	name nGS1927_1_09808;
	nominal_voltage 7199.55785679;
};

object node {
	phases ABCN;
	name nOS1931_1_09808_1;
	nominal_voltage 7199.55785679;
};

object node {
	phases ABCN;
	name nOS1931_3_09808;
	nominal_voltage 7199.55785679;
};

object node {
	phases ABCN;
	name nPME1142_1_09808;
	nominal_voltage 7199.55785679;
};

object node {
	phases ABCN;
	name nGS1927_2_09808_1;
	nominal_voltage 7199.55785679;
};

object node {
	phases ABCN;
	name nGS0491_2_09808;
	nominal_voltage 7199.55785679;
};

object node {
	phases ABCN;
	name n27261419_09808;
	nominal_voltage 7199.55785679;
};

object node {
	phases AN;
	name nB5301147_F_09808;
	nominal_voltage 7199.55785679;
};

object node {
	phases ABCN;
	name nGS0491_3_09808;
	nominal_voltage 7199.55785679;
};

object node {
	phases ABCN;
	name nP5312089_1_T_09808;
	nominal_voltage 7199.55785679;
};

object node {
	phases ABCN;
	name n27261798_09808;
	nominal_voltage 7199.55785679;
};

object node {
	phases ABCN;
	name nGS0862_2_09808;
	nominal_voltage 7199.55785679;
};

object node {
	phases ABCN;
	name nND27301268_09808;
	nominal_voltage 7199.55785679;
};

object node {
	phases ABCN;
	name nP5075203_1_09808;
	nominal_voltage 7199.55785679;
};

object node {
	phases ABCN;
	name nGS0491_4_09808;
	nominal_voltage 7199.55785679;
};

object node {
	phases ABCN;
	name n27261790_09808;
	nominal_voltage 7199.55785679;
};

object node {
	phases ABCN;
	name nOS1931_1_09808;
	nominal_voltage 7199.55785679;
};

object node {
	phases ABCN;
	name n164885633_09808;
	nominal_voltage 7199.55785679;
};

object node {
	phases ABCN;
	name nPME1143_3_09808_1;
	nominal_voltage 7199.55785679;
};

object node {
	phases ABCN;
	name n27261140_09808;
	nominal_voltage 7199.55785679;
};

object node {
	phases ABCN;
	name nOS1931_5_09808;
	nominal_voltage 7199.55785679;
};

object node {
	phases ABCN;
	name nPME1142_4_09808;
	nominal_voltage 7199.55785679;
};

object node {
	phases ABCN;
	name nND27301527_09808;
	nominal_voltage 7199.55785679;
};

object node {
	phases ABCN;
	name nOS1931_4_09808;
	nominal_voltage 7199.55785679;
};

object node {
	phases ABCN;
	name nPME1142_3_09808;
	nominal_voltage 7199.55785679;
};

object node {
	phases ABCN;
	name n27261282_09808;
	nominal_voltage 7199.55785679;
};

object node {
	phases ABCN;
	name nP5435106_1_T_09808;
	nominal_voltage 7199.55785679;
};

object node {
	phases ABCN;
	name n164885515_09808;
	nominal_voltage 7199.55785679;
};

object node {
	phases ABCN;
	name nP5161347_1_T_09808;
	nominal_voltage 7199.55785679;
};

object node {
	phases ABCN;
	name n27261590_09808;
	nominal_voltage 7199.55785679;
};

object node {
	phases ABCN;
	name n27261274_09808;
	nominal_voltage 7199.55785679;
};

object node {
	phases ABCN;
	name nP5398622_B_09808;
	nominal_voltage 7199.55785679;
};

object node {
	phases ABCN;
	name n27216717_09808;
	nominal_voltage 7199.55785679;
};

object node {
	phases ABCN;
	name nP5365275_1_09808;
	nominal_voltage 7199.55785679;
};

object node {
	phases ABCN;
	name n27262336_09808;
	nominal_voltage 7199.55785679;
};

object node {
	phases ABCN;
	name n27262356_09808;
	nominal_voltage 7199.55785679;
};

object node {
	phases ABCN;
	name nPME2088_3_09808;
	nominal_voltage 7199.55785679;
};

object node {
	phases ABCN;
	name nGS0862_3_09808;
	nominal_voltage 7199.55785679;
};

object node {
	phases ABCN;
	name nP5161347_1_09808;
	nominal_voltage 7199.55785679;
};

object node {
	phases ABCN;
	name n27262386_09808;
	nominal_voltage 7199.55785679;
};

object node {
	phases ABCN;
	name nPME1143_3_09808;
	nominal_voltage 7199.55785679;
};

object node {
	phases ABCN;
	name nPME1143_1_09808;
	nominal_voltage 7199.55785679;
};

object node {
	phases ABCN;
	name nBS2418_L_09808;
	nominal_voltage 7199.55785679;
};

object node {
	phases ABCN;
	name nP5301145_09808;
	nominal_voltage 7199.55785679;
};

object node {
	phases ABCN;
	name nP5506374_1_T_09808;
	nominal_voltage 7199.55785679;
};

object node {
	phases ABCN;
	name n27262336_09808_1;
	nominal_voltage 7199.55785679;
};

object node {
	phases ABCN;
	name nGS2219_2_09808;
	nominal_voltage 7199.55785679;
};

object node {
	phases ABCN;
	name n95856888_09808;
	nominal_voltage 7199.55785679;
};

object node {
	phases ABCN;
	name nP5412515_1_T_09808;
	nominal_voltage 7199.55785679;
};

object node {
	phases ABCN;
	name nGS1927_4_09808;
	nominal_voltage 7199.55785679;
};

object node {
	phases ABCN;
	name n27261582_09808;
	nominal_voltage 7199.55785679;
};

object node {
	phases ABCN;
	name nJ637A_1P_09808;
	nominal_voltage 7199.55785679;
};

object node {
	phases ABCN;
	name n27262176_09808_1;
	nominal_voltage 7199.55785679;
};

object node {
	phases ABCN;
	name nGS2219_1_09808;
	nominal_voltage 7199.55785679;
};

object node {
	phases ABCN;
	name n27218175_09808;
	nominal_voltage 7199.55785679;
};

object node {
	phases ABCN;
	name nP5398623_1_09808;
	nominal_voltage 7199.55785679;
};

object node {
	phases ABCN;
	name nGS0862_1_09808;
	nominal_voltage 7199.55785679;
};

object node {
	phases ABCN;
	name n27262386_09808_1;
	nominal_voltage 7199.55785679;
};

object node {
	phases ABCN;
	name nGS2219_4_09808;
	nominal_voltage 7199.55785679;
};

object node {
	phases ABCN;
	name nP5161135_09808;
	nominal_voltage 7199.55785679;
};

object node {
	phases ABCN;
	name nP5379641_1_09808;
	nominal_voltage 7199.55785679;
};

object node {
	phases ABCN;
	name nPME1142_2_09808;
	nominal_voltage 7199.55785679;
};

object node {
	phases ABCN;
	name nGS1927_2_09808;
	nominal_voltage 7199.55785679;
};

object node {
	phases ABCN;
	name nP5398623_1_T_09808;
	nominal_voltage 7199.55785679;
};

object node {
	phases ABCN;
	name n27259965_09808;
	nominal_voltage 7199.55785679;
};

object node {
	phases ABCN;
	name n27262356_09808_1;
	nominal_voltage 7199.55785679;
};

object node {
	phases ABCN;
	name nP5312089_1_09808;
	nominal_voltage 7199.55785679;
};

object node {
	phases ABCN;
	name n164885641_09808;
	nominal_voltage 7199.55785679;
};

object node {
	phases ABCN;
	name nPME1143_2_09808;
	nominal_voltage 7199.55785679;
};

object node {
	phases ABCN;
	name nGS0850_1_09808;
	nominal_voltage 7199.55785679;
};

object node {
	phases ABCN;
	name nPME1143_4_09808;
	nominal_voltage 7199.55785679;
};

object node {
	phases ABCN;
	name nND164886126_09808;
	nominal_voltage 7199.55785679;
};

object node {
	phases ABCN;
	name nGS0491_5_09808_1;
	nominal_voltage 7199.55785679;
};

object node {
	phases ABCN;
	name nP5075203_1_T_09808;
	nominal_voltage 7199.55785679;
};

object node {
	phases ABCN;
	name n27216709_09808;
	nominal_voltage 7199.55785679;
};

object node {
	phases ABCN;
	name nND69081020_09808;
	nominal_voltage 7199.55785679;
};

object triplex_meter {
	phases AS;
	name ntpmJ052A_2PTA;
	nominal_voltage 120.0;
};

object triplex_meter {
	phases BS;
	name ntpmP5075203B;
	nominal_voltage 120.0;
};

object triplex_meter {
	phases CS;
	name ntpmJ052A_2PTC;
	nominal_voltage 120.0;
};

object triplex_meter {
	phases BS;
	name ntpmJ052A_2PTB;
	nominal_voltage 120.0;
};

object triplex_meter {
	phases BS;
	name ntpmP5379641B;
	nominal_voltage 120.0;
};

object triplex_meter {
	phases AS;
	name ntpmV5079055A;
	nominal_voltage 120.0;
};

object triplex_meter {
	phases BS;
	name ntpmP5161347B;
	nominal_voltage 120.0;
};

object triplex_meter {
	phases AS;
	name ntpmP5336835A;
	nominal_voltage 120.0;
};

object triplex_meter {
	phases BS;
	name ntpmP5336835B;
	nominal_voltage 120.0;
};

object triplex_meter {
	phases CS;
	name ntpmP5336835C;
	nominal_voltage 120.0;
};

object triplex_meter {
	phases AS;
	name ntpmP5379641A;
	nominal_voltage 120.0;
};

object triplex_meter {
	phases AS;
	name ntpmP5435106A;
	nominal_voltage 120.0;
};

object triplex_meter {
	phases CS;
	name ntpmP5435106C;
	nominal_voltage 120.0;
};

object triplex_meter {
	phases BS;
	name ntpmP5435106B;
	nominal_voltage 120.0;
};

object triplex_meter {
	phases AS;
	name ntpmP5398623A;
	nominal_voltage 120.0;
};

object triplex_meter {
	phases CS;
	name ntpmP5398623C;
	nominal_voltage 120.0;
};

object triplex_meter {
	phases BS;
	name ntpmP5398623B;
	nominal_voltage 120.0;
};

object triplex_meter {
	phases CS;
	name ntpmP5075203C;
	nominal_voltage 120.0;
};

object triplex_meter {
	phases AS;
	name ntpmP5161347A;
	nominal_voltage 120.0;
};

object triplex_meter {
	phases BS;
	name ntpmV5079055B;
	nominal_voltage 120.0;
};

object triplex_meter {
	phases CS;
	name ntpmP5301146C;
	nominal_voltage 120.0;
};

object triplex_meter {
	phases BS;
	name ntpmP5301146B;
	nominal_voltage 120.0;
};

object triplex_meter {
	phases AS;
	name ntpmP5301146A;
	nominal_voltage 120.0;
};

object triplex_meter {
	phases AS;
	name ntpmV5161137T1A;
	nominal_voltage 120.0;
};

object triplex_meter {
	phases BS;
	name ntpmV5161137T1B;
	nominal_voltage 120.0;
};

object triplex_meter {
	phases CS;
	name ntpmV5161137T1C;
	nominal_voltage 120.0;
};

object triplex_meter {
	phases AS;
	name ntpmB5301147A;
	nominal_voltage 120.0;
};

object triplex_meter {
	phases CS;
	name ntpmP5161135C;
	nominal_voltage 120.0;
};

object triplex_meter {
	phases BS;
	name ntpmP5510319B;
	nominal_voltage 120.0;
};

object triplex_meter {
	phases CS;
	name ntpmV5079055C;
	nominal_voltage 120.0;
};

object triplex_meter {
	phases CS;
	name ntpmP5312090C;
	nominal_voltage 120.0;
};

object triplex_meter {
	phases BS;
	name ntpmP5312090B;
	nominal_voltage 120.0;
};

object triplex_meter {
	phases AS;
	name ntpmP5312090A;
	nominal_voltage 120.0;
};

object triplex_meter {
	phases BS;
	name ntpmP5161135B;
	nominal_voltage 120.0;
};

object triplex_meter {
	phases CS;
	name ntpmP5161347C;
	nominal_voltage 120.0;
};

object triplex_meter {
	phases CS;
	name ntpmP5130856C;
	nominal_voltage 120.0;
};

object triplex_meter {
	phases BS;
	name ntpmP5130856B;
	nominal_voltage 120.0;
};

object triplex_meter {
	phases AS;
	name ntpmP5130856A;
	nominal_voltage 120.0;
};

object triplex_meter {
	phases AS;
	name ntpmP5435787A;
	nominal_voltage 120.0;
};

object triplex_meter {
	phases CS;
	name ntpmP5435787C;
	nominal_voltage 120.0;
};

object triplex_meter {
	phases BS;
	name ntpmP5398622B;
	nominal_voltage 120.0;
};

object triplex_meter {
	phases CS;
	name ntpmP5398622C;
	nominal_voltage 120.0;
};

object triplex_meter {
	phases AS;
	name ntpmP5075203A;
	nominal_voltage 120.0;
};

object triplex_meter {
	phases AS;
	name ntpmP5398622A;
	nominal_voltage 120.0;
};

object triplex_meter {
	phases AS;
	name ntpmP5161135A;
	nominal_voltage 120.0;
};

object triplex_meter {
	phases AS;
	name ntpmP5412515A;
	nominal_voltage 120.0;
};

object triplex_meter {
	phases BS;
	name ntpmP5412515B;
	nominal_voltage 120.0;
};

object triplex_meter {
	phases CS;
	name ntpmP5412515C;
	nominal_voltage 120.0;
};

object triplex_meter {
	phases AS;
	name ntpmP5312089A;
	nominal_voltage 120.0;
};

object triplex_meter {
	phases CS;
	name ntpmP5312089C;
	nominal_voltage 120.0;
};

object triplex_meter {
	phases BS;
	name ntpmP5312089B;
	nominal_voltage 120.0;
};

object triplex_meter {
	phases BS;
	name ntpmP5301145B;
	nominal_voltage 120.0;
};

object triplex_meter {
	phases CS;
	name ntpmP5301145C;
	nominal_voltage 120.0;
};

object triplex_meter {
	phases AS;
	name ntpmV5071124A;
	nominal_voltage 120.0;
};

object triplex_meter {
	phases AS;
	name ntpmP5301145A;
	nominal_voltage 120.0;
};

object triplex_meter {
	phases AS;
	name ntpmP5506374A;
	nominal_voltage 120.0;
};

object triplex_meter {
	phases CS;
	name ntpmP5379641C;
	nominal_voltage 120.0;
};

object triplex_meter {
	phases CS;
	name ntpmP5506374C;
	nominal_voltage 120.0;
};

object triplex_meter {
	phases BS;
	name ntpmP5506374B;
	nominal_voltage 120.0;
};

object triplex_meter {
	phases AS;
	name ntpmP5510319A;
	nominal_voltage 120.0;
};

object triplex_meter {
	phases BS;
	name ntpmP5365275B;
	nominal_voltage 120.0;
};

object triplex_meter {
	phases CS;
	name ntpmP5365275C;
	nominal_voltage 120.0;
};

object triplex_meter {
	phases BS;
	name ntpmP5435787B;
	nominal_voltage 120.0;
};

object triplex_meter {
	phases AS;
	name ntpmP5365275A;
	nominal_voltage 120.0;
};

object triplex_meter {
	phases CS;
	name ntpmP5510319C;
	nominal_voltage 120.0;
};

object triplex_node {
	phases BS;
	power_12 6666.667+5000.000j;
	name ntpnJ052A_2PTB;
	parent ntpmJ052A_2PTB;
	nominal_voltage 120.0;
};

object triplex_node {
	phases CS;
	power_12 6666.667+5000.000j;
	name ntpnJ052A_2PTC;
	parent ntpmJ052A_2PTC;
	nominal_voltage 120.0;
};

object triplex_node {
	phases AS;
	power_12 146666.667+110000.000j;
	name ntpnP5301145A;
	parent ntpmP5301145A;
	nominal_voltage 120.0;
};

object triplex_node {
	phases AS;
	power_12 6666.667+5000.000j;
	name ntpnJ052A_2PTA;
	parent ntpmJ052A_2PTA;
	nominal_voltage 120.0;
};

object triplex_node {
	phases AS;
	power_12 325333.333+244000.000j;
	name ntpnP5435787A;
	parent ntpmP5435787A;
	nominal_voltage 120.0;
};

object triplex_node {
	phases CS;
	power_12 5533.333+4150.000j;
	name ntpnV5079055C;
	parent ntpmV5079055C;
	nominal_voltage 120.0;
};

object triplex_node {
	phases BS;
	power_12 146666.667+110000.000j;
	name ntpnP5301145B;
	parent ntpmP5301145B;
	nominal_voltage 120.0;
};

object triplex_node {
	phases BS;
	power_12 5533.333+4150.000j;
	name ntpnV5079055B;
	parent ntpmV5079055B;
	nominal_voltage 120.0;
};

object triplex_node {
	phases AS;
	power_12 162666.667+122000.000j;
	name ntpnP5506374A;
	parent ntpmP5506374A;
	nominal_voltage 120.0;
};

object triplex_node {
	phases BS;
	power_12 162666.667+122000.000j;
	name ntpnP5506374B;
	parent ntpmP5506374B;
	nominal_voltage 120.0;
};

object triplex_node {
	phases AS;
	power_12 23400.000+17550.000j;
	name ntpnP5435106A;
	parent ntpmP5435106A;
	nominal_voltage 120.0;
};

object triplex_node {
	phases CS;
	power_12 188000.000+141000.000j;
	name ntpnP5398622C;
	parent ntpmP5398622C;
	nominal_voltage 120.0;
};

object triplex_node {
	phases BS;
	power_12 188000.000+141000.000j;
	name ntpnP5398622B;
	parent ntpmP5398622B;
	nominal_voltage 120.0;
};

object triplex_node {
	phases AS;
	power_12 188000.000+141000.000j;
	name ntpnP5398622A;
	parent ntpmP5398622A;
	nominal_voltage 120.0;
};

object triplex_node {
	phases BS;
	power_12 325333.333+244000.000j;
	name ntpnP5435787B;
	parent ntpmP5435787B;
	nominal_voltage 120.0;
};

object triplex_node {
	phases BS;
	power_12 118666.667+89000.000j;
	name ntpnP5312089B;
	parent ntpmP5312089B;
	nominal_voltage 120.0;
};

object triplex_node {
	phases CS;
	power_12 23400.000+17550.000j;
	name ntpnP5435106C;
	parent ntpmP5435106C;
	nominal_voltage 120.0;
};

object triplex_node {
	phases CS;
	power_12 44800.000+33600.000j;
	name ntpnP5379641C;
	parent ntpmP5379641C;
	nominal_voltage 120.0;
};

object triplex_node {
	phases BS;
	power_12 44800.000+33600.000j;
	name ntpnP5379641B;
	parent ntpmP5379641B;
	nominal_voltage 120.0;
};

object triplex_node {
	phases AS;
	power_12 44800.000+33600.000j;
	name ntpnP5379641A;
	parent ntpmP5379641A;
	nominal_voltage 120.0;
};

object triplex_node {
	phases CS;
	power_12 76000.000+57000.000j;
	name ntpnP5365275C;
	parent ntpmP5365275C;
	nominal_voltage 120.0;
};

object triplex_node {
	phases BS;
	power_12 76000.000+57000.000j;
	name ntpnP5365275B;
	parent ntpmP5365275B;
	nominal_voltage 120.0;
};

object triplex_node {
	phases AS;
	power_12 76000.000+57000.000j;
	name ntpnP5365275A;
	parent ntpmP5365275A;
	nominal_voltage 120.0;
};

object triplex_node {
	phases AS;
	power_12 20000.000+15000.000j;
	name ntpnV5071124A;
	parent ntpmV5071124A;
	nominal_voltage 120.0;
};

object triplex_node {
	phases BS;
	power_12 54400.000+40800.000j;
	name ntpnP5130856B;
	parent ntpmP5130856B;
	nominal_voltage 120.0;
};

object triplex_node {
	phases CS;
	power_12 54400.000+40800.000j;
	name ntpnP5130856C;
	parent ntpmP5130856C;
	nominal_voltage 120.0;
};

object triplex_node {
	phases BS;
	power_12 23400.000+17550.000j;
	name ntpnP5435106B;
	parent ntpmP5435106B;
	nominal_voltage 120.0;
};

object triplex_node {
	phases AS;
	power_12 54400.000+40800.000j;
	name ntpnP5130856A;
	parent ntpmP5130856A;
	nominal_voltage 120.0;
};

object triplex_node {
	phases AS;
	power_12 666.667+500.000j;
	name ntpnP5161135A;
	parent ntpmP5161135A;
	nominal_voltage 120.0;
};

object triplex_node {
	phases BS;
	power_12 666.667+500.000j;
	name ntpnP5161135B;
	parent ntpmP5161135B;
	nominal_voltage 120.0;
};

object triplex_node {
	phases CS;
	power_12 666.667+500.000j;
	name ntpnP5161135C;
	parent ntpmP5161135C;
	nominal_voltage 120.0;
};

object triplex_node {
	phases CS;
	power_12 146666.667+110000.000j;
	name ntpnP5301145C;
	parent ntpmP5301145C;
	nominal_voltage 120.0;
};

object triplex_node {
	phases BS;
	power_12 121333.333+91000.000j;
	name ntpnP5312090B;
	parent ntpmP5312090B;
	nominal_voltage 120.0;
};

object triplex_node {
	phases CS;
	power_12 121333.333+91000.000j;
	name ntpnP5312090C;
	parent ntpmP5312090C;
	nominal_voltage 120.0;
};

object triplex_node {
	phases AS;
	power_12 121333.333+91000.000j;
	name ntpnP5312090A;
	parent ntpmP5312090A;
	nominal_voltage 120.0;
};

object triplex_node {
	phases AS;
	power_12 24400.000+18300.000j;
	name ntpnP5336835A;
	parent ntpmP5336835A;
	nominal_voltage 120.0;
};

object triplex_node {
	phases CS;
	power_12 61333.333+46000.000j;
	name ntpnP5075203C;
	parent ntpmP5075203C;
	nominal_voltage 120.0;
};

object triplex_node {
	phases CS;
	power_12 24400.000+18300.000j;
	name ntpnP5336835C;
	parent ntpmP5336835C;
	nominal_voltage 120.0;
};

object triplex_node {
	phases BS;
	power_12 24400.000+18300.000j;
	name ntpnP5336835B;
	parent ntpmP5336835B;
	nominal_voltage 120.0;
};

object triplex_node {
	phases CS;
	power_12 325333.333+244000.000j;
	name ntpnP5435787C;
	parent ntpmP5435787C;
	nominal_voltage 120.0;
};

object triplex_node {
	phases AS;
	power_12 153333.333+115000.000j;
	name ntpnP5510319A;
	parent ntpmP5510319A;
	nominal_voltage 120.0;
};

object triplex_node {
	phases BS;
	power_12 153333.333+115000.000j;
	name ntpnP5510319B;
	parent ntpmP5510319B;
	nominal_voltage 120.0;
};

object triplex_node {
	phases CS;
	power_12 153333.333+115000.000j;
	name ntpnP5510319C;
	parent ntpmP5510319C;
	nominal_voltage 120.0;
};

object triplex_node {
	phases AS;
	power_12 138666.667+104000.000j;
	name ntpnP5398623A;
	parent ntpmP5398623A;
	nominal_voltage 120.0;
};

object triplex_node {
	phases BS;
	power_12 138666.667+104000.000j;
	name ntpnP5398623B;
	parent ntpmP5398623B;
	nominal_voltage 120.0;
};

object triplex_node {
	phases CS;
	power_12 138666.667+104000.000j;
	name ntpnP5398623C;
	parent ntpmP5398623C;
	nominal_voltage 120.0;
};

object triplex_node {
	phases AS;
	power_12 70400.000+52800.000j;
	name ntpnP5412515A;
	parent ntpmP5412515A;
	nominal_voltage 120.0;
};

object triplex_node {
	phases CS;
	power_12 70400.000+52800.000j;
	name ntpnP5412515C;
	parent ntpmP5412515C;
	nominal_voltage 120.0;
};

object triplex_node {
	phases BS;
	power_12 70400.000+52800.000j;
	name ntpnP5412515B;
	parent ntpmP5412515B;
	nominal_voltage 120.0;
};

object triplex_node {
	phases AS;
	power_12 1333.333+1000.000j;
	name ntpnV5161137T1A;
	parent ntpmV5161137T1A;
	nominal_voltage 120.0;
};

object triplex_node {
	phases CS;
	power_12 162666.667+122000.000j;
	name ntpnP5506374C;
	parent ntpmP5506374C;
	nominal_voltage 120.0;
};

object triplex_node {
	phases BS;
	power_12 133333.333+100000.000j;
	name ntpnP5301146B;
	parent ntpmP5301146B;
	nominal_voltage 120.0;
};

object triplex_node {
	phases CS;
	power_12 133333.333+100000.000j;
	name ntpnP5301146C;
	parent ntpmP5301146C;
	nominal_voltage 120.0;
};

object triplex_node {
	phases AS;
	power_12 133333.333+100000.000j;
	name ntpnP5301146A;
	parent ntpmP5301146A;
	nominal_voltage 120.0;
};

object triplex_node {
	phases CS;
	power_12 18800.000+14100.000j;
	name ntpnP5161347C;
	parent ntpmP5161347C;
	nominal_voltage 120.0;
};

object triplex_node {
	phases BS;
	power_12 18800.000+14100.000j;
	name ntpnP5161347B;
	parent ntpmP5161347B;
	nominal_voltage 120.0;
};

object triplex_node {
	phases AS;
	power_12 18800.000+14100.000j;
	name ntpnP5161347A;
	parent ntpmP5161347A;
	nominal_voltage 120.0;
};

object triplex_node {
	phases CS;
	power_12 1333.333+1000.000j;
	name ntpnV5161137T1C;
	parent ntpmV5161137T1C;
	nominal_voltage 120.0;
};

object triplex_node {
	phases BS;
	power_12 61333.333+46000.000j;
	name ntpnP5075203B;
	parent ntpmP5075203B;
	nominal_voltage 120.0;
};

object triplex_node {
	phases BS;
	power_12 1333.333+1000.000j;
	name ntpnV5161137T1B;
	parent ntpmV5161137T1B;
	nominal_voltage 120.0;
};

object triplex_node {
	phases AS;
	power_12 118666.667+89000.000j;
	name ntpnP5312089A;
	parent ntpmP5312089A;
	nominal_voltage 120.0;
};

object triplex_node {
	phases AS;
	power_12 2400.000+1800.000j;
	name ntpnB5301147A;
	parent ntpmB5301147A;
	nominal_voltage 120.0;
};

object triplex_node {
	phases CS;
	power_12 118666.667+89000.000j;
	name ntpnP5312089C;
	parent ntpmP5312089C;
	nominal_voltage 120.0;
};

object triplex_node {
	phases AS;
	power_12 5533.333+4150.000j;
	name ntpnV5079055A;
	parent ntpmV5079055A;
	nominal_voltage 120.0;
};

object triplex_node {
	phases AS;
	power_12 61333.333+46000.000j;
	name ntpnP5075203A;
	parent ntpmP5075203A;
	nominal_voltage 120.0;
};

object overhead_line {
	phases ABC;
	from nPME1143_2_09808;
	name PME1143_2_09808$PME1143_3_09808;
	to nPME1143_3_09808;
	length 0.003281;
	configuration DEFAULTconf;
};

object overhead_line {
	phases ABC;
	from nPME1143_4_09808;
	name PME1143_4_09808$PME1143_1_09808;
	to nPME1143_1_09808;
	length 0.003281;
	configuration DEFAULTconf;
};

object overhead_line {
	phases ABC;
	from n11319_F;
	name 11319;
	to nGS0491_5_09808;
	length 200.000000;
	configuration CU_3C_1_0conf;
};

object underground_line {
	phases ABC;
	from nND164886126_09808;
	name ND164886126$ND69081020;
	to nND69081020_09808;
	length 780.999974;
	configuration CLP_3C_1000_5_12_16KVphABC;
};

object underground_line {
	phases ABC;
	from nJ052A_3P_09808;
	name J052A_3P$P5075203_1;
	to nP5075203_1_09808;
	length 202.999993;
	configuration CLP_3C_1000_5_12_16KVphABC;
};

object underground_line {
	phases ABC;
	from nPME2088_4_09808_1;
	name PME2088_4$27262336;
	to n27262336_09808;
	length 231.999993;
	configuration CLP_3C_1_0_5_12_16KVphABC;
};

object underground_line {
	phases ABC;
	from nP5161135_09808;
	name P5161135$P5435106_1;
	to nP5435106_1_09808;
	length 345.999990;
	configuration CLP_3C_750_5_12_16KVphABC;
};

object underground_line {
	phases ABC;
	from nND27301268_09808;
	name P5301146_2$ND27301268;
	to nP5301146_2_09808;
	length 30.000000;
	configuration CLP_3C_#2_5_12_16KVphABC;
};

object underground_line {
	phases ABC;
	from nPME2088_2_09808_1;
	name PME2088_2$P5312090_1;
	to nP5312090_1_09808;
	length 458.999987;
	configuration CLP_3C_1_0_5_12_16KVphABC;
};

object underground_line {
	phases ABC;
	from nND164886126_09808;
	name BS2418_T$ND164886126;
	to nBS2418_T_09808;
	length 504.999984;
	configuration CLP_3C_#2_5_12_16KVphABC;
};

object underground_line {
	phases ABC;
	from n27262336_09808_1;
	name 27262336$P5312089_1;
	to nP5312089_1_09808;
	length 8.000000;
	configuration CLP_3C_1_0_5_12_16KVphABC;
};

object underground_line {
	phases ABC;
	from nPME1143_1_09808;
	name PME1143_1$ND27262276;
	to nND27262276_09808;
	length 98.999997;
	configuration CLP_3C_350_5_12_16KVphABC;
};

object underground_line {
	phases ABC;
	from nGS2219_2_09808;
	name GS2219_1$GS2219_2;
	to nGS2219_1_09808;
	length 25.000000;
	configuration BUSphABC;
};

object underground_line {
	phases ABC;
	from n27216701_09808;
	name OS1931_1$27216701;
	to nOS1931_1_09808;
	length 25.000000;
	configuration BUSphABC;
};

object underground_line {
	phases ABC;
	from n27259965_09808;
	name 27259965$27259957;
	to n27259957_09808;
	length 25.000000;
	configuration BUSphABC;
};

object underground_line {
	phases ABC;
	from nJ141A_2P_09808;
	name J141A_2P$P5398622_A;
	to nP5398622_A_09808;
	length 325.999990;
	configuration CLP_3C_1000_5_12_16KVphABC;
};

object underground_line {
	phases ABC;
	from n27262356_09808;
	name 27262356$P5161347_1;
	to nP5161347_1_09808;
	length 10.000000;
	configuration CLP_3C_#2_5_12_16KVphABC;
};

object underground_line {
	phases ABC;
	from nND27301292_09808;
	name ND27301292$P5506374_1;
	to nP5506374_1_09808;
	length 231.999993;
	configuration CLP_3C_350_5_12_16KVphABC;
};

object underground_line {
	phases ABC;
	from nPME2088_2_09808;
	name PME2088_2$PME2088_4;
	to nPME2088_4_09808;
	length 50.000000;
	configuration BUSphABC;
};

object underground_line {
	phases ABC;
	from nOS1931_5_09808_1;
	name OS1931_5$P5365275_1;
	to nP5365275_1_09808;
	length 726.999977;
	configuration CLP_3C_750_5_12_16KVphABC;
};

object underground_line {
	phases ABC;
	from nGS0862_2_09808;
	name GS0862_2$GS0491_2;
	to nGS0491_2_09808;
	length 1242.999961;
	configuration CLP_3C_1000_5_12_16KVphABC;
};

object underground_line {
	phases ABC;
	from n164885524_09808;
	name 164885524$164885533;
	to n164885533_09808;
	length 25.000000;
	configuration BUSphABC;
...